
---------- Begin Simulation Statistics ----------
simSeconds                                   0.000014                       # Number of seconds simulated (Second)
simTicks                                     14151250                       # Number of ticks simulated (Tick)
finalTick                                    14151250                       # Number of ticks from beginning of simulation (restored from checkpoints and never reset) (Tick)
simFreq                                  1000000000000                       # The number of ticks per simulated second ((Tick/Second))
hostSeconds                                      0.10                       # Real time elapsed on the host (Second)
hostTickRate                                144394617                       # The number of ticks simulated per host second (ticks/s) ((Tick/Second))
hostMemory                                     513400                       # Number of bytes of host memory used (Byte)
simInsts                                        10001                       # Number of instructions simulated (Count)
simOps                                          11307                       # Number of ops (including micro ops) simulated (Count)
hostInstRate                                   101946                       # Simulator instruction rate (inst/s) ((Count/Second))
hostOpRate                                     115245                       # Simulator op (including micro ops) rate (op/s) ((Count/Second))
system.clk_domain.clock                          1000                       # Clock period in ticks (Tick)
system.cpu0.numCycles                           11322                       # Number of cpu cycles simulated (Cycle)
system.cpu0.cpi                              1.130504                       # CPI: cycles per instruction (core level) ((Cycle/Count))
system.cpu0.ipc                              0.884561                       # IPC: instructions per cycle (core level) ((Count/Cycle))
system.cpu0.numWorkItemsStarted                     0                       # Number of work items this cpu started (Count)
system.cpu0.numWorkItemsCompleted                   0                       # Number of work items this cpu completed (Count)
system.cpu0.commitStats0.numInsts               10015                       # Number of instructions committed (thread level) (Count)
system.cpu0.commitStats0.numOps                 11322                       # Number of ops (including micro ops) committed (thread level) (Count)
system.cpu0.commitStats0.numInstsNotNOP             0                       # Number of instructions committed excluding NOPs or prefetches (Count)
system.cpu0.commitStats0.numOpsNotNOP               0                       # Number of Ops (including micro ops) Simulated (Count)
system.cpu0.commitStats0.cpi                 1.130504                       # CPI: cycles per instruction (thread level) ((Cycle/Count))
system.cpu0.commitStats0.ipc                 0.884561                       # IPC: instructions per cycle (thread level) ((Count/Cycle))
system.cpu0.commitStats0.numMemRefs                 0                       # Number of memory references committed (Count)
system.cpu0.commitStats0.numFpInsts                 0                       # Number of float instructions (Count)
system.cpu0.commitStats0.numIntInsts             9631                       # Number of integer instructions (Count)
system.cpu0.commitStats0.numLoadInsts            1313                       # Number of load instructions (Count)
system.cpu0.commitStats0.numStoreInsts           1287                       # Number of store instructions (Count)
system.cpu0.commitStats0.numVecInsts              167                       # Number of vector instructions (Count)
system.cpu0.commitStats0.committedInstType::No_OpClass           17      0.15%      0.15% # Class of committed instruction. (Count)
system.cpu0.commitStats0.committedInstType::IntAlu         8643     76.34%     76.49% # Class of committed instruction. (Count)
system.cpu0.commitStats0.committedInstType::IntMult            7      0.06%     76.55% # Class of committed instruction. (Count)
system.cpu0.commitStats0.committedInstType::IntDiv            3      0.03%     76.58% # Class of committed instruction. (Count)
system.cpu0.commitStats0.committedInstType::FloatAdd            0      0.00%     76.58% # Class of committed instruction. (Count)
system.cpu0.commitStats0.committedInstType::FloatCmp            0      0.00%     76.58% # Class of committed instruction. (Count)
system.cpu0.commitStats0.committedInstType::FloatCvt            0      0.00%     76.58% # Class of committed instruction. (Count)
system.cpu0.commitStats0.committedInstType::FloatMult            0      0.00%     76.58% # Class of committed instruction. (Count)
system.cpu0.commitStats0.committedInstType::FloatMultAcc            0      0.00%     76.58% # Class of committed instruction. (Count)
system.cpu0.commitStats0.committedInstType::FloatDiv            0      0.00%     76.58% # Class of committed instruction. (Count)
system.cpu0.commitStats0.committedInstType::FloatMisc            9      0.08%     76.66% # Class of committed instruction. (Count)
system.cpu0.commitStats0.committedInstType::FloatSqrt            0      0.00%     76.66% # Class of committed instruction. (Count)
system.cpu0.commitStats0.committedInstType::SimdAdd            1      0.01%     76.66% # Class of committed instruction. (Count)
system.cpu0.commitStats0.committedInstType::SimdAddAcc            0      0.00%     76.66% # Class of committed instruction. (Count)
system.cpu0.commitStats0.committedInstType::SimdAlu           12      0.11%     76.77% # Class of committed instruction. (Count)
system.cpu0.commitStats0.committedInstType::SimdCmp           25      0.22%     76.99% # Class of committed instruction. (Count)
system.cpu0.commitStats0.committedInstType::SimdCvt            0      0.00%     76.99% # Class of committed instruction. (Count)
system.cpu0.commitStats0.committedInstType::SimdMisc            4      0.04%     77.03% # Class of committed instruction. (Count)
system.cpu0.commitStats0.committedInstType::SimdMult            0      0.00%     77.03% # Class of committed instruction. (Count)
system.cpu0.commitStats0.committedInstType::SimdMultAcc            0      0.00%     77.03% # Class of committed instruction. (Count)
system.cpu0.commitStats0.committedInstType::SimdMatMultAcc            0      0.00%     77.03% # Class of committed instruction. (Count)
system.cpu0.commitStats0.committedInstType::SimdShift            1      0.01%     77.04% # Class of committed instruction. (Count)
system.cpu0.commitStats0.committedInstType::SimdShiftAcc            0      0.00%     77.04% # Class of committed instruction. (Count)
system.cpu0.commitStats0.committedInstType::SimdDiv            0      0.00%     77.04% # Class of committed instruction. (Count)
system.cpu0.commitStats0.committedInstType::SimdSqrt            0      0.00%     77.04% # Class of committed instruction. (Count)
system.cpu0.commitStats0.committedInstType::SimdFloatAdd            0      0.00%     77.04% # Class of committed instruction. (Count)
system.cpu0.commitStats0.committedInstType::SimdFloatAlu            0      0.00%     77.04% # Class of committed instruction. (Count)
system.cpu0.commitStats0.committedInstType::SimdFloatCmp            0      0.00%     77.04% # Class of committed instruction. (Count)
system.cpu0.commitStats0.committedInstType::SimdFloatCvt            0      0.00%     77.04% # Class of committed instruction. (Count)
system.cpu0.commitStats0.committedInstType::SimdFloatDiv            0      0.00%     77.04% # Class of committed instruction. (Count)
system.cpu0.commitStats0.committedInstType::SimdFloatMisc            0      0.00%     77.04% # Class of committed instruction. (Count)
system.cpu0.commitStats0.committedInstType::SimdFloatMult            0      0.00%     77.04% # Class of committed instruction. (Count)
system.cpu0.commitStats0.committedInstType::SimdFloatMultAcc            0      0.00%     77.04% # Class of committed instruction. (Count)
system.cpu0.commitStats0.committedInstType::SimdFloatMatMultAcc            0      0.00%     77.04% # Class of committed instruction. (Count)
system.cpu0.commitStats0.committedInstType::SimdFloatSqrt            0      0.00%     77.04% # Class of committed instruction. (Count)
system.cpu0.commitStats0.committedInstType::SimdReduceAdd            0      0.00%     77.04% # Class of committed instruction. (Count)
system.cpu0.commitStats0.committedInstType::SimdReduceAlu            0      0.00%     77.04% # Class of committed instruction. (Count)
system.cpu0.commitStats0.committedInstType::SimdReduceCmp            0      0.00%     77.04% # Class of committed instruction. (Count)
system.cpu0.commitStats0.committedInstType::SimdFloatReduceAdd            0      0.00%     77.04% # Class of committed instruction. (Count)
system.cpu0.commitStats0.committedInstType::SimdFloatReduceCmp            0      0.00%     77.04% # Class of committed instruction. (Count)
system.cpu0.commitStats0.committedInstType::SimdAes            0      0.00%     77.04% # Class of committed instruction. (Count)
system.cpu0.commitStats0.committedInstType::SimdAesMix            0      0.00%     77.04% # Class of committed instruction. (Count)
system.cpu0.commitStats0.committedInstType::SimdSha1Hash            0      0.00%     77.04% # Class of committed instruction. (Count)
system.cpu0.commitStats0.committedInstType::SimdSha1Hash2            0      0.00%     77.04% # Class of committed instruction. (Count)
system.cpu0.commitStats0.committedInstType::SimdSha256Hash            0      0.00%     77.04% # Class of committed instruction. (Count)
system.cpu0.commitStats0.committedInstType::SimdSha256Hash2            0      0.00%     77.04% # Class of committed instruction. (Count)
system.cpu0.commitStats0.committedInstType::SimdShaSigma2            0      0.00%     77.04% # Class of committed instruction. (Count)
system.cpu0.commitStats0.committedInstType::SimdShaSigma3            0      0.00%     77.04% # Class of committed instruction. (Count)
system.cpu0.commitStats0.committedInstType::SimdPredAlu            0      0.00%     77.04% # Class of committed instruction. (Count)
system.cpu0.commitStats0.committedInstType::Matrix            0      0.00%     77.04% # Class of committed instruction. (Count)
system.cpu0.commitStats0.committedInstType::MatrixMov            0      0.00%     77.04% # Class of committed instruction. (Count)
system.cpu0.commitStats0.committedInstType::MatrixOP            0      0.00%     77.04% # Class of committed instruction. (Count)
system.cpu0.commitStats0.committedInstType::MemRead         1313     11.60%     88.63% # Class of committed instruction. (Count)
system.cpu0.commitStats0.committedInstType::MemWrite         1287     11.37%    100.00% # Class of committed instruction. (Count)
system.cpu0.commitStats0.committedInstType::FloatMemRead            0      0.00%    100.00% # Class of committed instruction. (Count)
system.cpu0.commitStats0.committedInstType::FloatMemWrite            0      0.00%    100.00% # Class of committed instruction. (Count)
system.cpu0.commitStats0.committedInstType::IprAccess            0      0.00%    100.00% # Class of committed instruction. (Count)
system.cpu0.commitStats0.committedInstType::InstPrefetch            0      0.00%    100.00% # Class of committed instruction. (Count)
system.cpu0.commitStats0.committedInstType::SimdUnitStrideLoad            0      0.00%    100.00% # Class of committed instruction. (Count)
system.cpu0.commitStats0.committedInstType::SimdUnitStrideStore            0      0.00%    100.00% # Class of committed instruction. (Count)
system.cpu0.commitStats0.committedInstType::SimdUnitStrideMaskLoad            0      0.00%    100.00% # Class of committed instruction. (Count)
system.cpu0.commitStats0.committedInstType::SimdUnitStrideMaskStore            0      0.00%    100.00% # Class of committed instruction. (Count)
system.cpu0.commitStats0.committedInstType::SimdStridedLoad            0      0.00%    100.00% # Class of committed instruction. (Count)
system.cpu0.commitStats0.committedInstType::SimdStridedStore            0      0.00%    100.00% # Class of committed instruction. (Count)
system.cpu0.commitStats0.committedInstType::SimdIndexedLoad            0      0.00%    100.00% # Class of committed instruction. (Count)
system.cpu0.commitStats0.committedInstType::SimdIndexedStore            0      0.00%    100.00% # Class of committed instruction. (Count)
system.cpu0.commitStats0.committedInstType::SimdWholeRegisterLoad            0      0.00%    100.00% # Class of committed instruction. (Count)
system.cpu0.commitStats0.committedInstType::SimdWholeRegisterStore            0      0.00%    100.00% # Class of committed instruction. (Count)
system.cpu0.commitStats0.committedInstType::SimdUnitStrideFaultOnlyFirstLoad            0      0.00%    100.00% # Class of committed instruction. (Count)
system.cpu0.commitStats0.committedInstType::SimdUnitStrideSegmentedLoad            0      0.00%    100.00% # Class of committed instruction. (Count)
system.cpu0.commitStats0.committedInstType::SimdUnitStrideSegmentedStore            0      0.00%    100.00% # Class of committed instruction. (Count)
system.cpu0.commitStats0.committedInstType::SimdExt            0      0.00%    100.00% # Class of committed instruction. (Count)
system.cpu0.commitStats0.committedInstType::SimdFloatExt            0      0.00%    100.00% # Class of committed instruction. (Count)
system.cpu0.commitStats0.committedInstType::SimdConfig            0      0.00%    100.00% # Class of committed instruction. (Count)
system.cpu0.commitStats0.committedInstType::total        11322                       # Class of committed instruction. (Count)
system.cpu0.commitStats0.committedControl::IsControl         2768                       # Class of control type instructions committed (Count)
system.cpu0.commitStats0.committedControl::IsDirectControl         2535                       # Class of control type instructions committed (Count)
system.cpu0.commitStats0.committedControl::IsIndirectControl          233                       # Class of control type instructions committed (Count)
system.cpu0.commitStats0.committedControl::IsCondControl         2092                       # Class of control type instructions committed (Count)
system.cpu0.commitStats0.committedControl::IsUncondControl          676                       # Class of control type instructions committed (Count)
system.cpu0.commitStats0.committedControl::IsCall          222                       # Class of control type instructions committed (Count)
system.cpu0.commitStats0.committedControl::IsReturn          217                       # Class of control type instructions committed (Count)
system.cpu0.dcache.demandHits::cpu0.data         2333                       # number of demand (read+write) hits (Count)
system.cpu0.dcache.demandHits::total             2333                       # number of demand (read+write) hits (Count)
system.cpu0.dcache.overallHits::cpu0.data         2333                       # number of overall hits (Count)
system.cpu0.dcache.overallHits::total            2333                       # number of overall hits (Count)
system.cpu0.dcache.demandMisses::cpu0.data          254                       # number of demand (read+write) misses (Count)
system.cpu0.dcache.demandMisses::total            254                       # number of demand (read+write) misses (Count)
system.cpu0.dcache.overallMisses::cpu0.data          254                       # number of overall misses (Count)
system.cpu0.dcache.overallMisses::total           254                       # number of overall misses (Count)
system.cpu0.dcache.demandAccesses::cpu0.data         2587                       # number of demand (read+write) accesses (Count)
system.cpu0.dcache.demandAccesses::total         2587                       # number of demand (read+write) accesses (Count)
system.cpu0.dcache.overallAccesses::cpu0.data         2587                       # number of overall (read+write) accesses (Count)
system.cpu0.dcache.overallAccesses::total         2587                       # number of overall (read+write) accesses (Count)
system.cpu0.dcache.demandMissRate::cpu0.data     0.098183                       # miss rate for demand accesses (Ratio)
system.cpu0.dcache.demandMissRate::total     0.098183                       # miss rate for demand accesses (Ratio)
system.cpu0.dcache.overallMissRate::cpu0.data     0.098183                       # miss rate for overall accesses (Ratio)
system.cpu0.dcache.overallMissRate::total     0.098183                       # miss rate for overall accesses (Ratio)
system.cpu0.dcache.blockedCycles::no_mshrs            0                       # number of cycles access was blocked (Cycle)
system.cpu0.dcache.blockedCycles::no_targets            0                       # number of cycles access was blocked (Cycle)
system.cpu0.dcache.blockedCauses::no_mshrs            0                       # number of times access was blocked (Count)
system.cpu0.dcache.blockedCauses::no_targets            0                       # number of times access was blocked (Count)
system.cpu0.dcache.avgBlocked::no_mshrs           nan                       # average number of cycles each access was blocked ((Cycle/Count))
system.cpu0.dcache.avgBlocked::no_targets          nan                       # average number of cycles each access was blocked ((Cycle/Count))
system.cpu0.dcache.replacements                     0                       # number of replacements (Count)
system.cpu0.dcache.LoadLockedReq.hits::cpu0.data            3                       # number of LoadLockedReq hits (Count)
system.cpu0.dcache.LoadLockedReq.hits::total            3                       # number of LoadLockedReq hits (Count)
system.cpu0.dcache.LoadLockedReq.misses::cpu0.data            1                       # number of LoadLockedReq misses (Count)
system.cpu0.dcache.LoadLockedReq.misses::total            1                       # number of LoadLockedReq misses (Count)
system.cpu0.dcache.LoadLockedReq.accesses::cpu0.data            4                       # number of LoadLockedReq accesses(hits+misses) (Count)
system.cpu0.dcache.LoadLockedReq.accesses::total            4                       # number of LoadLockedReq accesses(hits+misses) (Count)
system.cpu0.dcache.LoadLockedReq.missRate::cpu0.data     0.250000                       # miss rate for LoadLockedReq accesses (Ratio)
system.cpu0.dcache.LoadLockedReq.missRate::total     0.250000                       # miss rate for LoadLockedReq accesses (Ratio)
system.cpu0.dcache.ReadReq.hits::cpu0.data         1163                       # number of ReadReq hits (Count)
system.cpu0.dcache.ReadReq.hits::total           1163                       # number of ReadReq hits (Count)
system.cpu0.dcache.ReadReq.misses::cpu0.data          147                       # number of ReadReq misses (Count)
system.cpu0.dcache.ReadReq.misses::total          147                       # number of ReadReq misses (Count)
system.cpu0.dcache.ReadReq.accesses::cpu0.data         1310                       # number of ReadReq accesses(hits+misses) (Count)
system.cpu0.dcache.ReadReq.accesses::total         1310                       # number of ReadReq accesses(hits+misses) (Count)
system.cpu0.dcache.ReadReq.missRate::cpu0.data     0.112214                       # miss rate for ReadReq accesses (Ratio)
system.cpu0.dcache.ReadReq.missRate::total     0.112214                       # miss rate for ReadReq accesses (Ratio)
system.cpu0.dcache.StoreCondReq.hits::cpu0.data            4                       # number of StoreCondReq hits (Count)
system.cpu0.dcache.StoreCondReq.hits::total            4                       # number of StoreCondReq hits (Count)
system.cpu0.dcache.StoreCondReq.accesses::cpu0.data            4                       # number of StoreCondReq accesses(hits+misses) (Count)
system.cpu0.dcache.StoreCondReq.accesses::total            4                       # number of StoreCondReq accesses(hits+misses) (Count)
system.cpu0.dcache.SwapReq.hits::cpu0.data            3                       # number of SwapReq hits (Count)
system.cpu0.dcache.SwapReq.hits::total              3                       # number of SwapReq hits (Count)
system.cpu0.dcache.SwapReq.accesses::cpu0.data            3                       # number of SwapReq accesses(hits+misses) (Count)
system.cpu0.dcache.SwapReq.accesses::total            3                       # number of SwapReq accesses(hits+misses) (Count)
system.cpu0.dcache.WriteLineReq.misses::cpu0.data           10                       # number of WriteLineReq misses (Count)
system.cpu0.dcache.WriteLineReq.misses::total           10                       # number of WriteLineReq misses (Count)
system.cpu0.dcache.WriteLineReq.accesses::cpu0.data           10                       # number of WriteLineReq accesses(hits+misses) (Count)
system.cpu0.dcache.WriteLineReq.accesses::total           10                       # number of WriteLineReq accesses(hits+misses) (Count)
system.cpu0.dcache.WriteLineReq.missRate::cpu0.data            1                       # miss rate for WriteLineReq accesses (Ratio)
system.cpu0.dcache.WriteLineReq.missRate::total            1                       # miss rate for WriteLineReq accesses (Ratio)
system.cpu0.dcache.WriteReq.hits::cpu0.data         1170                       # number of WriteReq hits (Count)
system.cpu0.dcache.WriteReq.hits::total          1170                       # number of WriteReq hits (Count)
system.cpu0.dcache.WriteReq.misses::cpu0.data           97                       # number of WriteReq misses (Count)
system.cpu0.dcache.WriteReq.misses::total           97                       # number of WriteReq misses (Count)
system.cpu0.dcache.WriteReq.accesses::cpu0.data         1267                       # number of WriteReq accesses(hits+misses) (Count)
system.cpu0.dcache.WriteReq.accesses::total         1267                       # number of WriteReq accesses(hits+misses) (Count)
system.cpu0.dcache.WriteReq.missRate::cpu0.data     0.076559                       # miss rate for WriteReq accesses (Ratio)
system.cpu0.dcache.WriteReq.missRate::total     0.076559                       # miss rate for WriteReq accesses (Ratio)
system.cpu0.dcache.power_state.pwrStateResidencyTicks::UNDEFINED     14151250                       # Cumulative time (in ticks) in various power states (Tick)
system.cpu0.dcache.tags.tagsInUse          184.587586                       # Average ticks per tags in use ((Tick/Count))
system.cpu0.dcache.tags.totalRefs                2598                       # Total number of references to valid blocks. (Count)
system.cpu0.dcache.tags.sampledRefs               255                       # Sample count of references to valid blocks. (Count)
system.cpu0.dcache.tags.avgRefs             10.188235                       # Average number of references to valid blocks. ((Count/Count))
system.cpu0.dcache.tags.warmupTick               5000                       # The tick when the warmup percentage was hit. (Tick)
system.cpu0.dcache.tags.occupancies::cpu0.data   184.587586                       # Average occupied blocks per tick, per requestor ((Count/Tick))
system.cpu0.dcache.tags.avgOccs::cpu0.data     0.360523                       # Average percentage of cache occupancy ((Ratio/Tick))
system.cpu0.dcache.tags.avgOccs::total       0.360523                       # Average percentage of cache occupancy ((Ratio/Tick))
system.cpu0.dcache.tags.occupanciesTaskId::1024          255                       # Occupied blocks per task id (Count)
system.cpu0.dcache.tags.ageTaskId_1024::0           89                       # Occupied blocks per task id, per block age (Count)
system.cpu0.dcache.tags.ageTaskId_1024::1          166                       # Occupied blocks per task id, per block age (Count)
system.cpu0.dcache.tags.ratioOccsTaskId::1024     0.498047                       # Ratio of occupied blocks and all blocks, per task id (Ratio)
system.cpu0.dcache.tags.tagAccesses             10647                       # Number of tag accesses (Count)
system.cpu0.dcache.tags.dataAccesses            10647                       # Number of data accesses (Count)
system.cpu0.dcache.tags.power_state.pwrStateResidencyTicks::UNDEFINED     14151250                       # Cumulative time (in ticks) in various power states (Tick)
system.cpu0.exec_context.thread_0.numMatAluAccesses            0                       # Number of matrix alu accesses (Count)
system.cpu0.exec_context.thread_0.numCallsReturns          439                       # Number of times a function call or return occured (Count)
system.cpu0.exec_context.thread_0.numMatInsts            0                       # Number of matrix instructions (Count)
system.cpu0.exec_context.thread_0.numIdleCycles            0                       # Number of idle cycles (Cycle)
system.cpu0.exec_context.thread_0.numBusyCycles        11322                       # Number of busy cycles (Cycle)
system.cpu0.exec_context.thread_0.notIdleFraction            1                       # Percentage of non-idle cycles (Ratio)
system.cpu0.exec_context.thread_0.idleFraction            0                       # Percentage of idle cycles (Ratio)
system.cpu0.executeStats0.numInsts                  0                       # Number of executed instructions (Count)
system.cpu0.executeStats0.numNop                    0                       # Number of nop insts executed (Count)
system.cpu0.executeStats0.numBranches               0                       # Number of branches executed (Count)
system.cpu0.executeStats0.numLoadInsts              0                       # Number of load instructions executed (Count)
system.cpu0.executeStats0.numStoreInsts          2600                       # Number of stores executed (Count)
system.cpu0.executeStats0.instRate                  0                       # Inst execution rate ((Count/Cycle))
system.cpu0.executeStats0.numFpRegWrites            0                       # Number of times the floating registers were written (Count)
system.cpu0.executeStats0.numIntAluAccesses         9631                       # Number of integer alu accesses (Count)
system.cpu0.executeStats0.numIntRegReads        11239                       # Number of times the integer registers were read (Count)
system.cpu0.executeStats0.numIntRegWrites         6275                       # Number of times the integer registers were written (Count)
system.cpu0.executeStats0.numMemRefs             2600                       # Number of memory refs (Count)
system.cpu0.executeStats0.numMiscRegReads          375                       # Number of times the Misc registers were read (Count)
system.cpu0.executeStats0.numMiscRegWrites           15                       # Number of times the Misc registers were written (Count)
system.cpu0.executeStats0.numVecAluAccesses          167                       # Number of vector alu accesses (Count)
system.cpu0.executeStats0.numVecPredRegReads            5                       # Number of times the predicate registers were read (Count)
system.cpu0.executeStats0.numVecPredRegWrites            2                       # Number of times the predicate registers were written (Count)
system.cpu0.executeStats0.numVecRegReads          183                       # Number of times the vector registers were read (Count)
system.cpu0.executeStats0.numVecRegWrites           75                       # Number of times the vector registers were written (Count)
system.cpu0.executeStats0.numDiscardedOps            0                       # Number of ops (including micro ops) which were discarded before commit (Count)
system.cpu0.fetchStats0.numInsts                10015                       # Number of instructions fetched (thread level) (Count)
system.cpu0.fetchStats0.numOps                  11322                       # Number of ops (including micro ops) fetched (thread level) (Count)
system.cpu0.fetchStats0.fetchRate            0.884561                       # Number of inst fetches per cycle ((Count/Cycle))
system.cpu0.fetchStats0.numBranches              2768                       # Number of branches fetched (Count)
system.cpu0.fetchStats0.branchRate           0.244480                       # Number of branch fetches per cycle (Ratio)
system.cpu0.fetchStats0.numFetchSuspends            0                       # Number of times Execute suspended instruction fetching (Count)
system.cpu0.icache.demandHits::cpu0.inst         9750                       # number of demand (read+write) hits (Count)
system.cpu0.icache.demandHits::total             9750                       # number of demand (read+write) hits (Count)
system.cpu0.icache.overallHits::cpu0.inst         9750                       # number of overall hits (Count)
system.cpu0.icache.overallHits::total            9750                       # number of overall hits (Count)
system.cpu0.icache.demandMisses::cpu0.inst          266                       # number of demand (read+write) misses (Count)
system.cpu0.icache.demandMisses::total            266                       # number of demand (read+write) misses (Count)
system.cpu0.icache.overallMisses::cpu0.inst          266                       # number of overall misses (Count)
system.cpu0.icache.overallMisses::total           266                       # number of overall misses (Count)
system.cpu0.icache.demandAccesses::cpu0.inst        10016                       # number of demand (read+write) accesses (Count)
system.cpu0.icache.demandAccesses::total        10016                       # number of demand (read+write) accesses (Count)
system.cpu0.icache.overallAccesses::cpu0.inst        10016                       # number of overall (read+write) accesses (Count)
system.cpu0.icache.overallAccesses::total        10016                       # number of overall (read+write) accesses (Count)
system.cpu0.icache.demandMissRate::cpu0.inst     0.026558                       # miss rate for demand accesses (Ratio)
system.cpu0.icache.demandMissRate::total     0.026558                       # miss rate for demand accesses (Ratio)
system.cpu0.icache.overallMissRate::cpu0.inst     0.026558                       # miss rate for overall accesses (Ratio)
system.cpu0.icache.overallMissRate::total     0.026558                       # miss rate for overall accesses (Ratio)
system.cpu0.icache.blockedCycles::no_mshrs            0                       # number of cycles access was blocked (Cycle)
system.cpu0.icache.blockedCycles::no_targets            0                       # number of cycles access was blocked (Cycle)
system.cpu0.icache.blockedCauses::no_mshrs            0                       # number of times access was blocked (Count)
system.cpu0.icache.blockedCauses::no_targets            0                       # number of times access was blocked (Count)
system.cpu0.icache.avgBlocked::no_mshrs           nan                       # average number of cycles each access was blocked ((Cycle/Count))
system.cpu0.icache.avgBlocked::no_targets          nan                       # average number of cycles each access was blocked ((Cycle/Count))
system.cpu0.icache.writebacks::writebacks            5                       # number of writebacks (Count)
system.cpu0.icache.writebacks::total                5                       # number of writebacks (Count)
system.cpu0.icache.replacements                     5                       # number of replacements (Count)
system.cpu0.icache.ReadReq.hits::cpu0.inst         9750                       # number of ReadReq hits (Count)
system.cpu0.icache.ReadReq.hits::total           9750                       # number of ReadReq hits (Count)
system.cpu0.icache.ReadReq.misses::cpu0.inst          266                       # number of ReadReq misses (Count)
system.cpu0.icache.ReadReq.misses::total          266                       # number of ReadReq misses (Count)
system.cpu0.icache.ReadReq.accesses::cpu0.inst        10016                       # number of ReadReq accesses(hits+misses) (Count)
system.cpu0.icache.ReadReq.accesses::total        10016                       # number of ReadReq accesses(hits+misses) (Count)
system.cpu0.icache.ReadReq.missRate::cpu0.inst     0.026558                       # miss rate for ReadReq accesses (Ratio)
system.cpu0.icache.ReadReq.missRate::total     0.026558                       # miss rate for ReadReq accesses (Ratio)
system.cpu0.icache.power_state.pwrStateResidencyTicks::UNDEFINED     14151250                       # Cumulative time (in ticks) in various power states (Tick)
system.cpu0.icache.tags.tagsInUse          190.664699                       # Average ticks per tags in use ((Tick/Count))
system.cpu0.icache.tags.totalRefs               10016                       # Total number of references to valid blocks. (Count)
system.cpu0.icache.tags.sampledRefs               266                       # Sample count of references to valid blocks. (Count)
system.cpu0.icache.tags.avgRefs             37.654135                       # Average number of references to valid blocks. ((Count/Count))
system.cpu0.icache.tags.warmupTick                  0                       # The tick when the warmup percentage was hit. (Tick)
system.cpu0.icache.tags.occupancies::cpu0.inst   190.664699                       # Average occupied blocks per tick, per requestor ((Count/Tick))
system.cpu0.icache.tags.avgOccs::cpu0.inst     0.372392                       # Average percentage of cache occupancy ((Ratio/Tick))
system.cpu0.icache.tags.avgOccs::total       0.372392                       # Average percentage of cache occupancy ((Ratio/Tick))
system.cpu0.icache.tags.occupanciesTaskId::1024          261                       # Occupied blocks per task id (Count)
system.cpu0.icache.tags.ageTaskId_1024::0          120                       # Occupied blocks per task id, per block age (Count)
system.cpu0.icache.tags.ageTaskId_1024::1          141                       # Occupied blocks per task id, per block age (Count)
system.cpu0.icache.tags.ratioOccsTaskId::1024     0.509766                       # Ratio of occupied blocks and all blocks, per task id (Ratio)
system.cpu0.icache.tags.tagAccesses             40330                       # Number of tag accesses (Count)
system.cpu0.icache.tags.dataAccesses            40330                       # Number of data accesses (Count)
system.cpu0.icache.tags.power_state.pwrStateResidencyTicks::UNDEFINED     14151250                       # Cumulative time (in ticks) in various power states (Tick)
system.cpu0.mmu.alignFaults                         0                       # Number of MMU faults due to alignment restrictions (Count)
system.cpu0.mmu.prefetchFaults                      0                       # Number of MMU faults due to prefetch (Count)
system.cpu0.mmu.domainFaults                        0                       # Number of MMU faults due to domain restrictions (Count)
system.cpu0.mmu.permsFaults                         0                       # Number of MMU faults due to permissions restrictions (Count)
system.cpu0.mmu.dtb.readHits                        0                       # Read hits (Count)
system.cpu0.mmu.dtb.readMisses                      0                       # Read misses (Count)
system.cpu0.mmu.dtb.writeHits                       0                       # Write hits (Count)
system.cpu0.mmu.dtb.writeMisses                     0                       # Write misses (Count)
system.cpu0.mmu.dtb.inserts                         0                       # Number of times an entry is inserted into the TLB (Count)
system.cpu0.mmu.dtb.flushTlb                        0                       # Number of times a TLB invalidation was requested (Count)
system.cpu0.mmu.dtb.flushedEntries                  0                       # Number of entries that have been flushed from TLB (Count)
system.cpu0.mmu.dtb.readAccesses                    0                       # Read accesses (Count)
system.cpu0.mmu.dtb.writeAccesses                   0                       # Write accesses (Count)
system.cpu0.mmu.dtb.hits                            0                       # Total TLB (inst and data) hits (Count)
system.cpu0.mmu.dtb.misses                          0                       # Total TLB (inst and data) misses (Count)
system.cpu0.mmu.dtb.accesses                        0                       # Total TLB (inst and data) accesses (Count)
system.cpu0.mmu.dtb_walker.walks                    0                       # Table walker walks requested (Count)
system.cpu0.mmu.dtb_walker.requestOrigin_Requested::Data            0                       # Table walker requests started/completed, data/inst (Count)
system.cpu0.mmu.dtb_walker.requestOrigin_Requested::Inst            0                       # Table walker requests started/completed, data/inst (Count)
system.cpu0.mmu.dtb_walker.requestOrigin_Requested::total            0                       # Table walker requests started/completed, data/inst (Count)
system.cpu0.mmu.dtb_walker.requestOrigin_Completed::Data            0                       # Table walker requests started/completed, data/inst (Count)
system.cpu0.mmu.dtb_walker.requestOrigin_Completed::Inst            0                       # Table walker requests started/completed, data/inst (Count)
system.cpu0.mmu.dtb_walker.requestOrigin_Completed::total            0                       # Table walker requests started/completed, data/inst (Count)
system.cpu0.mmu.dtb_walker.requestOrigin::total            0                       # Table walker requests started/completed, data/inst (Count)
system.cpu0.mmu.dtb_walker.power_state.pwrStateResidencyTicks::UNDEFINED     14151250                       # Cumulative time (in ticks) in various power states (Tick)
system.cpu0.mmu.itb.instHits                        0                       # Inst hits (Count)
system.cpu0.mmu.itb.instMisses                      0                       # Inst misses (Count)
system.cpu0.mmu.itb.inserts                         0                       # Number of times an entry is inserted into the TLB (Count)
system.cpu0.mmu.itb.flushTlb                        0                       # Number of times a TLB invalidation was requested (Count)
system.cpu0.mmu.itb.flushedEntries                  0                       # Number of entries that have been flushed from TLB (Count)
system.cpu0.mmu.itb.instAccesses                    0                       # Inst accesses (Count)
system.cpu0.mmu.itb.hits                            0                       # Total TLB (inst and data) hits (Count)
system.cpu0.mmu.itb.misses                          0                       # Total TLB (inst and data) misses (Count)
system.cpu0.mmu.itb.accesses                        0                       # Total TLB (inst and data) accesses (Count)
system.cpu0.mmu.itb_walker.walks                    0                       # Table walker walks requested (Count)
system.cpu0.mmu.itb_walker.requestOrigin_Requested::Data            0                       # Table walker requests started/completed, data/inst (Count)
system.cpu0.mmu.itb_walker.requestOrigin_Requested::Inst            0                       # Table walker requests started/completed, data/inst (Count)
system.cpu0.mmu.itb_walker.requestOrigin_Requested::total            0                       # Table walker requests started/completed, data/inst (Count)
system.cpu0.mmu.itb_walker.requestOrigin_Completed::Data            0                       # Table walker requests started/completed, data/inst (Count)
system.cpu0.mmu.itb_walker.requestOrigin_Completed::Inst            0                       # Table walker requests started/completed, data/inst (Count)
system.cpu0.mmu.itb_walker.requestOrigin_Completed::total            0                       # Table walker requests started/completed, data/inst (Count)
system.cpu0.mmu.itb_walker.requestOrigin::total            0                       # Table walker requests started/completed, data/inst (Count)
system.cpu0.mmu.itb_walker.power_state.pwrStateResidencyTicks::UNDEFINED     14151250                       # Cumulative time (in ticks) in various power states (Tick)
system.cpu0.mmu.l2_shared.instHits                  0                       # Inst hits (Count)
system.cpu0.mmu.l2_shared.instMisses                0                       # Inst misses (Count)
system.cpu0.mmu.l2_shared.inserts                   0                       # Number of times an entry is inserted into the TLB (Count)
system.cpu0.mmu.l2_shared.flushTlb                  0                       # Number of times a TLB invalidation was requested (Count)
system.cpu0.mmu.l2_shared.flushedEntries            0                       # Number of entries that have been flushed from TLB (Count)
system.cpu0.mmu.l2_shared.instAccesses              0                       # Inst accesses (Count)
system.cpu0.mmu.l2_shared.hits                      0                       # Total TLB (inst and data) hits (Count)
system.cpu0.mmu.l2_shared.misses                    0                       # Total TLB (inst and data) misses (Count)
system.cpu0.mmu.l2_shared.accesses                  0                       # Total TLB (inst and data) accesses (Count)
system.cpu0.mmu.stage2_dtb.readHits                 0                       # Read hits (Count)
system.cpu0.mmu.stage2_dtb.readMisses               0                       # Read misses (Count)
system.cpu0.mmu.stage2_dtb.writeHits                0                       # Write hits (Count)
system.cpu0.mmu.stage2_dtb.writeMisses              0                       # Write misses (Count)
system.cpu0.mmu.stage2_dtb.inserts                  0                       # Number of times an entry is inserted into the TLB (Count)
system.cpu0.mmu.stage2_dtb.flushTlb                 0                       # Number of times a TLB invalidation was requested (Count)
system.cpu0.mmu.stage2_dtb.flushedEntries            0                       # Number of entries that have been flushed from TLB (Count)
system.cpu0.mmu.stage2_dtb.readAccesses             0                       # Read accesses (Count)
system.cpu0.mmu.stage2_dtb.writeAccesses            0                       # Write accesses (Count)
system.cpu0.mmu.stage2_dtb.hits                     0                       # Total TLB (inst and data) hits (Count)
system.cpu0.mmu.stage2_dtb.misses                   0                       # Total TLB (inst and data) misses (Count)
system.cpu0.mmu.stage2_dtb.accesses                 0                       # Total TLB (inst and data) accesses (Count)
system.cpu0.mmu.stage2_dtb_walker.walks             0                       # Table walker walks requested (Count)
system.cpu0.mmu.stage2_dtb_walker.requestOrigin_Requested::Data            0                       # Table walker requests started/completed, data/inst (Count)
system.cpu0.mmu.stage2_dtb_walker.requestOrigin_Requested::Inst            0                       # Table walker requests started/completed, data/inst (Count)
system.cpu0.mmu.stage2_dtb_walker.requestOrigin_Requested::total            0                       # Table walker requests started/completed, data/inst (Count)
system.cpu0.mmu.stage2_dtb_walker.requestOrigin_Completed::Data            0                       # Table walker requests started/completed, data/inst (Count)
system.cpu0.mmu.stage2_dtb_walker.requestOrigin_Completed::Inst            0                       # Table walker requests started/completed, data/inst (Count)
system.cpu0.mmu.stage2_dtb_walker.requestOrigin_Completed::total            0                       # Table walker requests started/completed, data/inst (Count)
system.cpu0.mmu.stage2_dtb_walker.requestOrigin::total            0                       # Table walker requests started/completed, data/inst (Count)
system.cpu0.mmu.stage2_dtb_walker.power_state.pwrStateResidencyTicks::UNDEFINED     14151250                       # Cumulative time (in ticks) in various power states (Tick)
system.cpu0.mmu.stage2_itb.instHits                 0                       # Inst hits (Count)
system.cpu0.mmu.stage2_itb.instMisses               0                       # Inst misses (Count)
system.cpu0.mmu.stage2_itb.inserts                  0                       # Number of times an entry is inserted into the TLB (Count)
system.cpu0.mmu.stage2_itb.flushTlb                 0                       # Number of times a TLB invalidation was requested (Count)
system.cpu0.mmu.stage2_itb.flushedEntries            0                       # Number of entries that have been flushed from TLB (Count)
system.cpu0.mmu.stage2_itb.instAccesses             0                       # Inst accesses (Count)
system.cpu0.mmu.stage2_itb.hits                     0                       # Total TLB (inst and data) hits (Count)
system.cpu0.mmu.stage2_itb.misses                   0                       # Total TLB (inst and data) misses (Count)
system.cpu0.mmu.stage2_itb.accesses                 0                       # Total TLB (inst and data) accesses (Count)
system.cpu0.mmu.stage2_itb_walker.walks             0                       # Table walker walks requested (Count)
system.cpu0.mmu.stage2_itb_walker.requestOrigin_Requested::Data            0                       # Table walker requests started/completed, data/inst (Count)
system.cpu0.mmu.stage2_itb_walker.requestOrigin_Requested::Inst            0                       # Table walker requests started/completed, data/inst (Count)
system.cpu0.mmu.stage2_itb_walker.requestOrigin_Requested::total            0                       # Table walker requests started/completed, data/inst (Count)
system.cpu0.mmu.stage2_itb_walker.requestOrigin_Completed::Data            0                       # Table walker requests started/completed, data/inst (Count)
system.cpu0.mmu.stage2_itb_walker.requestOrigin_Completed::Inst            0                       # Table walker requests started/completed, data/inst (Count)
system.cpu0.mmu.stage2_itb_walker.requestOrigin_Completed::total            0                       # Table walker requests started/completed, data/inst (Count)
system.cpu0.mmu.stage2_itb_walker.requestOrigin::total            0                       # Table walker requests started/completed, data/inst (Count)
system.cpu0.mmu.stage2_itb_walker.power_state.pwrStateResidencyTicks::UNDEFINED     14151250                       # Cumulative time (in ticks) in various power states (Tick)
system.cpu0.power_state.pwrStateResidencyTicks::ON     14151250                       # Cumulative time (in ticks) in various power states (Tick)
system.cpu0.thread_0.numInsts                       0                       # Number of Instructions committed (Count)
system.cpu0.thread_0.numOps                         0                       # Number of Ops committed (Count)
system.cpu0.thread_0.numMemRefs                     0                       # Number of Memory References (Count)
system.cpu0.workload.numSyscalls                   12                       # Number of system calls (Count)
system.cpu1.numCycles                               0                       # Number of cpu cycles simulated (Cycle)
system.cpu1.cpi                                   nan                       # CPI: cycles per instruction (core level) ((Cycle/Count))
system.cpu1.ipc                                   nan                       # IPC: instructions per cycle (core level) ((Count/Cycle))
system.cpu1.numWorkItemsStarted                     0                       # Number of work items this cpu started (Count)
system.cpu1.numWorkItemsCompleted                   0                       # Number of work items this cpu completed (Count)
system.cpu1.commitStats0.numOps                     0                       # Number of ops (including micro ops) committed (thread level) (Count)
system.cpu1.commitStats0.numInstsNotNOP             0                       # Number of instructions committed excluding NOPs or prefetches (Count)
system.cpu1.commitStats0.numOpsNotNOP               0                       # Number of Ops (including micro ops) Simulated (Count)
system.cpu1.commitStats0.cpi                      nan                       # CPI: cycles per instruction (thread level) ((Cycle/Count))
system.cpu1.commitStats0.ipc                      nan                       # IPC: instructions per cycle (thread level) ((Count/Cycle))
system.cpu1.commitStats0.numMemRefs                 0                       # Number of memory references committed (Count)
system.cpu1.commitStats0.numFpInsts                 0                       # Number of float instructions (Count)
system.cpu1.commitStats0.numIntInsts                0                       # Number of integer instructions (Count)
system.cpu1.commitStats0.numLoadInsts               0                       # Number of load instructions (Count)
system.cpu1.commitStats0.numStoreInsts              0                       # Number of store instructions (Count)
system.cpu1.commitStats0.numVecInsts                0                       # Number of vector instructions (Count)
system.cpu1.commitStats0.committedInstType::No_OpClass            0                       # Class of committed instruction. (Count)
system.cpu1.commitStats0.committedInstType::IntAlu            0                       # Class of committed instruction. (Count)
system.cpu1.commitStats0.committedInstType::IntMult            0                       # Class of committed instruction. (Count)
system.cpu1.commitStats0.committedInstType::IntDiv            0                       # Class of committed instruction. (Count)
system.cpu1.commitStats0.committedInstType::FloatAdd            0                       # Class of committed instruction. (Count)
system.cpu1.commitStats0.committedInstType::FloatCmp            0                       # Class of committed instruction. (Count)
system.cpu1.commitStats0.committedInstType::FloatCvt            0                       # Class of committed instruction. (Count)
system.cpu1.commitStats0.committedInstType::FloatMult            0                       # Class of committed instruction. (Count)
system.cpu1.commitStats0.committedInstType::FloatMultAcc            0                       # Class of committed instruction. (Count)
system.cpu1.commitStats0.committedInstType::FloatDiv            0                       # Class of committed instruction. (Count)
system.cpu1.commitStats0.committedInstType::FloatMisc            0                       # Class of committed instruction. (Count)
system.cpu1.commitStats0.committedInstType::FloatSqrt            0                       # Class of committed instruction. (Count)
system.cpu1.commitStats0.committedInstType::SimdAdd            0                       # Class of committed instruction. (Count)
system.cpu1.commitStats0.committedInstType::SimdAddAcc            0                       # Class of committed instruction. (Count)
system.cpu1.commitStats0.committedInstType::SimdAlu            0                       # Class of committed instruction. (Count)
system.cpu1.commitStats0.committedInstType::SimdCmp            0                       # Class of committed instruction. (Count)
system.cpu1.commitStats0.committedInstType::SimdCvt            0                       # Class of committed instruction. (Count)
system.cpu1.commitStats0.committedInstType::SimdMisc            0                       # Class of committed instruction. (Count)
system.cpu1.commitStats0.committedInstType::SimdMult            0                       # Class of committed instruction. (Count)
system.cpu1.commitStats0.committedInstType::SimdMultAcc            0                       # Class of committed instruction. (Count)
system.cpu1.commitStats0.committedInstType::SimdMatMultAcc            0                       # Class of committed instruction. (Count)
system.cpu1.commitStats0.committedInstType::SimdShift            0                       # Class of committed instruction. (Count)
system.cpu1.commitStats0.committedInstType::SimdShiftAcc            0                       # Class of committed instruction. (Count)
system.cpu1.commitStats0.committedInstType::SimdDiv            0                       # Class of committed instruction. (Count)
system.cpu1.commitStats0.committedInstType::SimdSqrt            0                       # Class of committed instruction. (Count)
system.cpu1.commitStats0.committedInstType::SimdFloatAdd            0                       # Class of committed instruction. (Count)
system.cpu1.commitStats0.committedInstType::SimdFloatAlu            0                       # Class of committed instruction. (Count)
system.cpu1.commitStats0.committedInstType::SimdFloatCmp            0                       # Class of committed instruction. (Count)
system.cpu1.commitStats0.committedInstType::SimdFloatCvt            0                       # Class of committed instruction. (Count)
system.cpu1.commitStats0.committedInstType::SimdFloatDiv            0                       # Class of committed instruction. (Count)
system.cpu1.commitStats0.committedInstType::SimdFloatMisc            0                       # Class of committed instruction. (Count)
system.cpu1.commitStats0.committedInstType::SimdFloatMult            0                       # Class of committed instruction. (Count)
system.cpu1.commitStats0.committedInstType::SimdFloatMultAcc            0                       # Class of committed instruction. (Count)
system.cpu1.commitStats0.committedInstType::SimdFloatMatMultAcc            0                       # Class of committed instruction. (Count)
system.cpu1.commitStats0.committedInstType::SimdFloatSqrt            0                       # Class of committed instruction. (Count)
system.cpu1.commitStats0.committedInstType::SimdReduceAdd            0                       # Class of committed instruction. (Count)
system.cpu1.commitStats0.committedInstType::SimdReduceAlu            0                       # Class of committed instruction. (Count)
system.cpu1.commitStats0.committedInstType::SimdReduceCmp            0                       # Class of committed instruction. (Count)
system.cpu1.commitStats0.committedInstType::SimdFloatReduceAdd            0                       # Class of committed instruction. (Count)
system.cpu1.commitStats0.committedInstType::SimdFloatReduceCmp            0                       # Class of committed instruction. (Count)
system.cpu1.commitStats0.committedInstType::SimdAes            0                       # Class of committed instruction. (Count)
system.cpu1.commitStats0.committedInstType::SimdAesMix            0                       # Class of committed instruction. (Count)
system.cpu1.commitStats0.committedInstType::SimdSha1Hash            0                       # Class of committed instruction. (Count)
system.cpu1.commitStats0.committedInstType::SimdSha1Hash2            0                       # Class of committed instruction. (Count)
system.cpu1.commitStats0.committedInstType::SimdSha256Hash            0                       # Class of committed instruction. (Count)
system.cpu1.commitStats0.committedInstType::SimdSha256Hash2            0                       # Class of committed instruction. (Count)
system.cpu1.commitStats0.committedInstType::SimdShaSigma2            0                       # Class of committed instruction. (Count)
system.cpu1.commitStats0.committedInstType::SimdShaSigma3            0                       # Class of committed instruction. (Count)
system.cpu1.commitStats0.committedInstType::SimdPredAlu            0                       # Class of committed instruction. (Count)
system.cpu1.commitStats0.committedInstType::Matrix            0                       # Class of committed instruction. (Count)
system.cpu1.commitStats0.committedInstType::MatrixMov            0                       # Class of committed instruction. (Count)
system.cpu1.commitStats0.committedInstType::MatrixOP            0                       # Class of committed instruction. (Count)
system.cpu1.commitStats0.committedInstType::MemRead            0                       # Class of committed instruction. (Count)
system.cpu1.commitStats0.committedInstType::MemWrite            0                       # Class of committed instruction. (Count)
system.cpu1.commitStats0.committedInstType::FloatMemRead            0                       # Class of committed instruction. (Count)
system.cpu1.commitStats0.committedInstType::FloatMemWrite            0                       # Class of committed instruction. (Count)
system.cpu1.commitStats0.committedInstType::IprAccess            0                       # Class of committed instruction. (Count)
system.cpu1.commitStats0.committedInstType::InstPrefetch            0                       # Class of committed instruction. (Count)
system.cpu1.commitStats0.committedInstType::SimdUnitStrideLoad            0                       # Class of committed instruction. (Count)
system.cpu1.commitStats0.committedInstType::SimdUnitStrideStore            0                       # Class of committed instruction. (Count)
system.cpu1.commitStats0.committedInstType::SimdUnitStrideMaskLoad            0                       # Class of committed instruction. (Count)
system.cpu1.commitStats0.committedInstType::SimdUnitStrideMaskStore            0                       # Class of committed instruction. (Count)
system.cpu1.commitStats0.committedInstType::SimdStridedLoad            0                       # Class of committed instruction. (Count)
system.cpu1.commitStats0.committedInstType::SimdStridedStore            0                       # Class of committed instruction. (Count)
system.cpu1.commitStats0.committedInstType::SimdIndexedLoad            0                       # Class of committed instruction. (Count)
system.cpu1.commitStats0.committedInstType::SimdIndexedStore            0                       # Class of committed instruction. (Count)
system.cpu1.commitStats0.committedInstType::SimdWholeRegisterLoad            0                       # Class of committed instruction. (Count)
system.cpu1.commitStats0.committedInstType::SimdWholeRegisterStore            0                       # Class of committed instruction. (Count)
system.cpu1.commitStats0.committedInstType::SimdUnitStrideFaultOnlyFirstLoad            0                       # Class of committed instruction. (Count)
system.cpu1.commitStats0.committedInstType::SimdUnitStrideSegmentedLoad            0                       # Class of committed instruction. (Count)
system.cpu1.commitStats0.committedInstType::SimdUnitStrideSegmentedStore            0                       # Class of committed instruction. (Count)
system.cpu1.commitStats0.committedInstType::SimdExt            0                       # Class of committed instruction. (Count)
system.cpu1.commitStats0.committedInstType::SimdFloatExt            0                       # Class of committed instruction. (Count)
system.cpu1.commitStats0.committedInstType::SimdConfig            0                       # Class of committed instruction. (Count)
system.cpu1.commitStats0.committedInstType::total            0                       # Class of committed instruction. (Count)
system.cpu1.dcache.blockedCycles::no_mshrs            0                       # number of cycles access was blocked (Cycle)
system.cpu1.dcache.blockedCycles::no_targets            0                       # number of cycles access was blocked (Cycle)
system.cpu1.dcache.blockedCauses::no_mshrs            0                       # number of times access was blocked (Count)
system.cpu1.dcache.blockedCauses::no_targets            0                       # number of times access was blocked (Count)
system.cpu1.dcache.avgBlocked::no_mshrs           nan                       # average number of cycles each access was blocked ((Cycle/Count))
system.cpu1.dcache.avgBlocked::no_targets          nan                       # average number of cycles each access was blocked ((Cycle/Count))
system.cpu1.dcache.replacements                     0                       # number of replacements (Count)
system.cpu1.dcache.power_state.pwrStateResidencyTicks::UNDEFINED     14151250                       # Cumulative time (in ticks) in various power states (Tick)
system.cpu1.dcache.tags.tagsInUse                   0                       # Average ticks per tags in use ((Tick/Count))
system.cpu1.dcache.tags.totalRefs                   0                       # Total number of references to valid blocks. (Count)
system.cpu1.dcache.tags.sampledRefs                 0                       # Sample count of references to valid blocks. (Count)
system.cpu1.dcache.tags.avgRefs                   nan                       # Average number of references to valid blocks. ((Count/Count))
system.cpu1.dcache.tags.warmupTick                  0                       # The tick when the warmup percentage was hit. (Tick)
system.cpu1.dcache.tags.tagAccesses                 0                       # Number of tag accesses (Count)
system.cpu1.dcache.tags.dataAccesses                0                       # Number of data accesses (Count)
system.cpu1.dcache.tags.power_state.pwrStateResidencyTicks::UNDEFINED     14151250                       # Cumulative time (in ticks) in various power states (Tick)
system.cpu1.exec_context.thread_0.numMatAluAccesses            0                       # Number of matrix alu accesses (Count)
system.cpu1.exec_context.thread_0.numCallsReturns            0                       # Number of times a function call or return occured (Count)
system.cpu1.exec_context.thread_0.numMatInsts            0                       # Number of matrix instructions (Count)
system.cpu1.exec_context.thread_0.numIdleCycles            0                       # Number of idle cycles (Cycle)
system.cpu1.exec_context.thread_0.numBusyCycles            0                       # Number of busy cycles (Cycle)
system.cpu1.exec_context.thread_0.notIdleFraction            0                       # Percentage of non-idle cycles (Ratio)
system.cpu1.exec_context.thread_0.idleFraction            1                       # Percentage of idle cycles (Ratio)
system.cpu1.executeStats0.numInsts                  0                       # Number of executed instructions (Count)
system.cpu1.executeStats0.numNop                    0                       # Number of nop insts executed (Count)
system.cpu1.executeStats0.numBranches               0                       # Number of branches executed (Count)
system.cpu1.executeStats0.numLoadInsts              0                       # Number of load instructions executed (Count)
system.cpu1.executeStats0.numStoreInsts             0                       # Number of stores executed (Count)
system.cpu1.executeStats0.instRate                nan                       # Inst execution rate ((Count/Cycle))
system.cpu1.executeStats0.numFpRegWrites            0                       # Number of times the floating registers were written (Count)
system.cpu1.executeStats0.numMemRefs                0                       # Number of memory refs (Count)
system.cpu1.executeStats0.numVecAluAccesses            0                       # Number of vector alu accesses (Count)
system.cpu1.executeStats0.numDiscardedOps            0                       # Number of ops (including micro ops) which were discarded before commit (Count)
system.cpu1.fetchStats0.numInsts                    0                       # Number of instructions fetched (thread level) (Count)
system.cpu1.fetchStats0.numOps                      0                       # Number of ops (including micro ops) fetched (thread level) (Count)
system.cpu1.fetchStats0.fetchRate                 nan                       # Number of inst fetches per cycle ((Count/Cycle))
system.cpu1.fetchStats0.branchRate                nan                       # Number of branch fetches per cycle (Ratio)
system.cpu1.fetchStats0.numFetchSuspends            0                       # Number of times Execute suspended instruction fetching (Count)
system.cpu1.icache.blockedCycles::no_mshrs            0                       # number of cycles access was blocked (Cycle)
system.cpu1.icache.blockedCycles::no_targets            0                       # number of cycles access was blocked (Cycle)
system.cpu1.icache.blockedCauses::no_mshrs            0                       # number of times access was blocked (Count)
system.cpu1.icache.blockedCauses::no_targets            0                       # number of times access was blocked (Count)
system.cpu1.icache.avgBlocked::no_mshrs           nan                       # average number of cycles each access was blocked ((Cycle/Count))
system.cpu1.icache.avgBlocked::no_targets          nan                       # average number of cycles each access was blocked ((Cycle/Count))
system.cpu1.icache.replacements                     0                       # number of replacements (Count)
system.cpu1.icache.power_state.pwrStateResidencyTicks::UNDEFINED     14151250                       # Cumulative time (in ticks) in various power states (Tick)
system.cpu1.icache.tags.tagsInUse                   0                       # Average ticks per tags in use ((Tick/Count))
system.cpu1.icache.tags.totalRefs                   0                       # Total number of references to valid blocks. (Count)
system.cpu1.icache.tags.sampledRefs                 0                       # Sample count of references to valid blocks. (Count)
system.cpu1.icache.tags.avgRefs                   nan                       # Average number of references to valid blocks. ((Count/Count))
system.cpu1.icache.tags.warmupTick                  0                       # The tick when the warmup percentage was hit. (Tick)
system.cpu1.icache.tags.tagAccesses                 0                       # Number of tag accesses (Count)
system.cpu1.icache.tags.dataAccesses                0                       # Number of data accesses (Count)
system.cpu1.icache.tags.power_state.pwrStateResidencyTicks::UNDEFINED     14151250                       # Cumulative time (in ticks) in various power states (Tick)
system.cpu1.mmu.alignFaults                         0                       # Number of MMU faults due to alignment restrictions (Count)
system.cpu1.mmu.prefetchFaults                      0                       # Number of MMU faults due to prefetch (Count)
system.cpu1.mmu.domainFaults                        0                       # Number of MMU faults due to domain restrictions (Count)
system.cpu1.mmu.permsFaults                         0                       # Number of MMU faults due to permissions restrictions (Count)
system.cpu1.mmu.dtb.readHits                        0                       # Read hits (Count)
system.cpu1.mmu.dtb.readMisses                      0                       # Read misses (Count)
system.cpu1.mmu.dtb.writeHits                       0                       # Write hits (Count)
system.cpu1.mmu.dtb.writeMisses                     0                       # Write misses (Count)
system.cpu1.mmu.dtb.inserts                         0                       # Number of times an entry is inserted into the TLB (Count)
system.cpu1.mmu.dtb.flushTlb                        0                       # Number of times a TLB invalidation was requested (Count)
system.cpu1.mmu.dtb.flushedEntries                  0                       # Number of entries that have been flushed from TLB (Count)
system.cpu1.mmu.dtb.readAccesses                    0                       # Read accesses (Count)
system.cpu1.mmu.dtb.writeAccesses                   0                       # Write accesses (Count)
system.cpu1.mmu.dtb.hits                            0                       # Total TLB (inst and data) hits (Count)
system.cpu1.mmu.dtb.misses                          0                       # Total TLB (inst and data) misses (Count)
system.cpu1.mmu.dtb.accesses                        0                       # Total TLB (inst and data) accesses (Count)
system.cpu1.mmu.dtb_walker.walks                    0                       # Table walker walks requested (Count)
system.cpu1.mmu.dtb_walker.requestOrigin_Requested::Data            0                       # Table walker requests started/completed, data/inst (Count)
system.cpu1.mmu.dtb_walker.requestOrigin_Requested::Inst            0                       # Table walker requests started/completed, data/inst (Count)
system.cpu1.mmu.dtb_walker.requestOrigin_Requested::total            0                       # Table walker requests started/completed, data/inst (Count)
system.cpu1.mmu.dtb_walker.requestOrigin_Completed::Data            0                       # Table walker requests started/completed, data/inst (Count)
system.cpu1.mmu.dtb_walker.requestOrigin_Completed::Inst            0                       # Table walker requests started/completed, data/inst (Count)
system.cpu1.mmu.dtb_walker.requestOrigin_Completed::total            0                       # Table walker requests started/completed, data/inst (Count)
system.cpu1.mmu.dtb_walker.requestOrigin::total            0                       # Table walker requests started/completed, data/inst (Count)
system.cpu1.mmu.dtb_walker.power_state.pwrStateResidencyTicks::UNDEFINED     14151250                       # Cumulative time (in ticks) in various power states (Tick)
system.cpu1.mmu.itb.instHits                        0                       # Inst hits (Count)
system.cpu1.mmu.itb.instMisses                      0                       # Inst misses (Count)
system.cpu1.mmu.itb.inserts                         0                       # Number of times an entry is inserted into the TLB (Count)
system.cpu1.mmu.itb.flushTlb                        0                       # Number of times a TLB invalidation was requested (Count)
system.cpu1.mmu.itb.flushedEntries                  0                       # Number of entries that have been flushed from TLB (Count)
system.cpu1.mmu.itb.instAccesses                    0                       # Inst accesses (Count)
system.cpu1.mmu.itb.hits                            0                       # Total TLB (inst and data) hits (Count)
system.cpu1.mmu.itb.misses                          0                       # Total TLB (inst and data) misses (Count)
system.cpu1.mmu.itb.accesses                        0                       # Total TLB (inst and data) accesses (Count)
system.cpu1.mmu.itb_walker.walks                    0                       # Table walker walks requested (Count)
system.cpu1.mmu.itb_walker.requestOrigin_Requested::Data            0                       # Table walker requests started/completed, data/inst (Count)
system.cpu1.mmu.itb_walker.requestOrigin_Requested::Inst            0                       # Table walker requests started/completed, data/inst (Count)
system.cpu1.mmu.itb_walker.requestOrigin_Requested::total            0                       # Table walker requests started/completed, data/inst (Count)
system.cpu1.mmu.itb_walker.requestOrigin_Completed::Data            0                       # Table walker requests started/completed, data/inst (Count)
system.cpu1.mmu.itb_walker.requestOrigin_Completed::Inst            0                       # Table walker requests started/completed, data/inst (Count)
system.cpu1.mmu.itb_walker.requestOrigin_Completed::total            0                       # Table walker requests started/completed, data/inst (Count)
system.cpu1.mmu.itb_walker.requestOrigin::total            0                       # Table walker requests started/completed, data/inst (Count)
system.cpu1.mmu.itb_walker.power_state.pwrStateResidencyTicks::UNDEFINED     14151250                       # Cumulative time (in ticks) in various power states (Tick)
system.cpu1.mmu.l2_shared.instHits                  0                       # Inst hits (Count)
system.cpu1.mmu.l2_shared.instMisses                0                       # Inst misses (Count)
system.cpu1.mmu.l2_shared.inserts                   0                       # Number of times an entry is inserted into the TLB (Count)
system.cpu1.mmu.l2_shared.flushTlb                  0                       # Number of times a TLB invalidation was requested (Count)
system.cpu1.mmu.l2_shared.flushedEntries            0                       # Number of entries that have been flushed from TLB (Count)
system.cpu1.mmu.l2_shared.instAccesses              0                       # Inst accesses (Count)
system.cpu1.mmu.l2_shared.hits                      0                       # Total TLB (inst and data) hits (Count)
system.cpu1.mmu.l2_shared.misses                    0                       # Total TLB (inst and data) misses (Count)
system.cpu1.mmu.l2_shared.accesses                  0                       # Total TLB (inst and data) accesses (Count)
system.cpu1.mmu.stage2_dtb.readHits                 0                       # Read hits (Count)
system.cpu1.mmu.stage2_dtb.readMisses               0                       # Read misses (Count)
system.cpu1.mmu.stage2_dtb.writeHits                0                       # Write hits (Count)
system.cpu1.mmu.stage2_dtb.writeMisses              0                       # Write misses (Count)
system.cpu1.mmu.stage2_dtb.inserts                  0                       # Number of times an entry is inserted into the TLB (Count)
system.cpu1.mmu.stage2_dtb.flushTlb                 0                       # Number of times a TLB invalidation was requested (Count)
system.cpu1.mmu.stage2_dtb.flushedEntries            0                       # Number of entries that have been flushed from TLB (Count)
system.cpu1.mmu.stage2_dtb.readAccesses             0                       # Read accesses (Count)
system.cpu1.mmu.stage2_dtb.writeAccesses            0                       # Write accesses (Count)
system.cpu1.mmu.stage2_dtb.hits                     0                       # Total TLB (inst and data) hits (Count)
system.cpu1.mmu.stage2_dtb.misses                   0                       # Total TLB (inst and data) misses (Count)
system.cpu1.mmu.stage2_dtb.accesses                 0                       # Total TLB (inst and data) accesses (Count)
system.cpu1.mmu.stage2_dtb_walker.walks             0                       # Table walker walks requested (Count)
system.cpu1.mmu.stage2_dtb_walker.requestOrigin_Requested::Data            0                       # Table walker requests started/completed, data/inst (Count)
system.cpu1.mmu.stage2_dtb_walker.requestOrigin_Requested::Inst            0                       # Table walker requests started/completed, data/inst (Count)
system.cpu1.mmu.stage2_dtb_walker.requestOrigin_Requested::total            0                       # Table walker requests started/completed, data/inst (Count)
system.cpu1.mmu.stage2_dtb_walker.requestOrigin_Completed::Data            0                       # Table walker requests started/completed, data/inst (Count)
system.cpu1.mmu.stage2_dtb_walker.requestOrigin_Completed::Inst            0                       # Table walker requests started/completed, data/inst (Count)
system.cpu1.mmu.stage2_dtb_walker.requestOrigin_Completed::total            0                       # Table walker requests started/completed, data/inst (Count)
system.cpu1.mmu.stage2_dtb_walker.requestOrigin::total            0                       # Table walker requests started/completed, data/inst (Count)
system.cpu1.mmu.stage2_dtb_walker.power_state.pwrStateResidencyTicks::UNDEFINED     14151250                       # Cumulative time (in ticks) in various power states (Tick)
system.cpu1.mmu.stage2_itb.instHits                 0                       # Inst hits (Count)
system.cpu1.mmu.stage2_itb.instMisses               0                       # Inst misses (Count)
system.cpu1.mmu.stage2_itb.inserts                  0                       # Number of times an entry is inserted into the TLB (Count)
system.cpu1.mmu.stage2_itb.flushTlb                 0                       # Number of times a TLB invalidation was requested (Count)
system.cpu1.mmu.stage2_itb.flushedEntries            0                       # Number of entries that have been flushed from TLB (Count)
system.cpu1.mmu.stage2_itb.instAccesses             0                       # Inst accesses (Count)
system.cpu1.mmu.stage2_itb.hits                     0                       # Total TLB (inst and data) hits (Count)
system.cpu1.mmu.stage2_itb.misses                   0                       # Total TLB (inst and data) misses (Count)
system.cpu1.mmu.stage2_itb.accesses                 0                       # Total TLB (inst and data) accesses (Count)
system.cpu1.mmu.stage2_itb_walker.walks             0                       # Table walker walks requested (Count)
system.cpu1.mmu.stage2_itb_walker.requestOrigin_Requested::Data            0                       # Table walker requests started/completed, data/inst (Count)
system.cpu1.mmu.stage2_itb_walker.requestOrigin_Requested::Inst            0                       # Table walker requests started/completed, data/inst (Count)
system.cpu1.mmu.stage2_itb_walker.requestOrigin_Requested::total            0                       # Table walker requests started/completed, data/inst (Count)
system.cpu1.mmu.stage2_itb_walker.requestOrigin_Completed::Data            0                       # Table walker requests started/completed, data/inst (Count)
system.cpu1.mmu.stage2_itb_walker.requestOrigin_Completed::Inst            0                       # Table walker requests started/completed, data/inst (Count)
system.cpu1.mmu.stage2_itb_walker.requestOrigin_Completed::total            0                       # Table walker requests started/completed, data/inst (Count)
system.cpu1.mmu.stage2_itb_walker.requestOrigin::total            0                       # Table walker requests started/completed, data/inst (Count)
system.cpu1.mmu.stage2_itb_walker.power_state.pwrStateResidencyTicks::UNDEFINED     14151250                       # Cumulative time (in ticks) in various power states (Tick)
system.cpu1.power_state.pwrStateResidencyTicks::ON     14151250                       # Cumulative time (in ticks) in various power states (Tick)
system.cpu1.thread_0.numInsts                       0                       # Number of Instructions committed (Count)
system.cpu1.thread_0.numOps                         0                       # Number of Ops committed (Count)
system.cpu1.thread_0.numMemRefs                     0                       # Number of Memory References (Count)
system.cpu_clk_domain.clock                      1250                       # Clock period in ticks (Tick)
system.cpu_voltage_domain.voltage                   1                       # Voltage in Volts (Volt)
system.l2.demandHits::cpu0.inst                     1                       # number of demand (read+write) hits (Count)
system.l2.demandHits::total                         1                       # number of demand (read+write) hits (Count)
system.l2.overallHits::cpu0.inst                    1                       # number of overall hits (Count)
[...]
system.l2.overallMisses::cpu0.data                245                       # number of overall misses (Count)
system.l2.overallMisses::total                    510                       # number of overall misses (Count)
system.l2.demandAccesses::cpu0.inst               266                       # number of demand (read+write) accesses (Count)
system.l2.demandAccesses::cpu0.data               245                       # number of demand (read+write) accesses (Count)
system.l2.demandAccesses::total                   511                       # number of demand (read+write) accesses (Count)
system.l2.overallAccesses::cpu0.inst              266                       # number of overall (read+write) accesses (Count)
system.l2.overallAccesses::cpu0.data              245                       # number of overall (read+write) accesses (Count)
system.l2.overallAccesses::total                  511                       # number of overall (read+write) accesses (Count)
system.l2.demandMissRate::cpu0.inst          0.996241                       # miss rate for demand accesses (Ratio)
system.l2.demandMissRate::cpu0.data                 1                       # miss rate for demand accesses (Ratio)
system.l2.demandMissRate::total              0.998043                       # miss rate for demand accesses (Ratio)
system.l2.overallMissRate::cpu0.inst         0.996241                       # miss rate for overall accesses (Ratio)
system.l2.overallMissRate::cpu0.data                1                       # miss rate for overall accesses (Ratio)
system.l2.overallMissRate::total             0.998043                       # miss rate for overall accesses (Ratio)
system.l2.blockedCycles::no_mshrs                   0                       # number of cycles access was blocked (Cycle)
system.l2.blockedCycles::no_targets                 0                       # number of cycles access was blocked (Cycle)
system.l2.blockedCauses::no_mshrs                   0                       # number of times access was blocked (Count)
system.l2.blockedCauses::no_targets                 0                       # number of times access was blocked (Count)
system.l2.avgBlocked::no_mshrs                    nan                       # average number of cycles each access was blocked ((Cycle/Count))
system.l2.avgBlocked::no_targets                  nan                       # average number of cycles each access was blocked ((Cycle/Count))
system.l2.replacements                              0                       # number of replacements (Count)
system.l2.InvalidateReq.misses::cpu0.data           10                       # number of InvalidateReq misses (Count)
system.l2.InvalidateReq.misses::total              10                       # number of InvalidateReq misses (Count)
system.l2.InvalidateReq.accesses::cpu0.data           10                       # number of InvalidateReq accesses(hits+misses) (Count)
system.l2.InvalidateReq.accesses::total            10                       # number of InvalidateReq accesses(hits+misses) (Count)
system.l2.InvalidateReq.missRate::cpu0.data            1                       # miss rate for InvalidateReq accesses (Ratio)
system.l2.InvalidateReq.missRate::total             1                       # miss rate for InvalidateReq accesses (Ratio)
system.l2.ReadCleanReq.hits::cpu0.inst              1                       # number of ReadCleanReq hits (Count)
system.l2.ReadCleanReq.hits::total                  1                       # number of ReadCleanReq hits (Count)
system.l2.ReadCleanReq.misses::cpu0.inst          265                       # number of ReadCleanReq misses (Count)
system.l2.ReadCleanReq.misses::total              265                       # number of ReadCleanReq misses (Count)
system.l2.ReadCleanReq.accesses::cpu0.inst          266                       # number of ReadCleanReq accesses(hits+misses) (Count)
system.l2.ReadCleanReq.accesses::total            266                       # number of ReadCleanReq accesses(hits+misses) (Count)
system.l2.ReadCleanReq.missRate::cpu0.inst     0.996241                       # miss rate for ReadCleanReq accesses (Ratio)
system.l2.ReadCleanReq.missRate::total       0.996241                       # miss rate for ReadCleanReq accesses (Ratio)
system.l2.ReadExReq.misses::cpu0.data              97                       # number of ReadExReq misses (Count)
system.l2.ReadExReq.misses::total                  97                       # number of ReadExReq misses (Count)
system.l2.ReadExReq.accesses::cpu0.data            97                       # number of ReadExReq accesses(hits+misses) (Count)
system.l2.ReadExReq.accesses::total                97                       # number of ReadExReq accesses(hits+misses) (Count)
system.l2.ReadExReq.missRate::cpu0.data             1                       # miss rate for ReadExReq accesses (Ratio)
system.l2.ReadExReq.missRate::total                 1                       # miss rate for ReadExReq accesses (Ratio)
system.l2.ReadSharedReq.misses::cpu0.data          148                       # number of ReadSharedReq misses (Count)
system.l2.ReadSharedReq.misses::total             148                       # number of ReadSharedReq misses (Count)
system.l2.ReadSharedReq.accesses::cpu0.data          148                       # number of ReadSharedReq accesses(hits+misses) (Count)
system.l2.ReadSharedReq.accesses::total           148                       # number of ReadSharedReq accesses(hits+misses) (Count)
system.l2.ReadSharedReq.missRate::cpu0.data            1                       # miss rate for ReadSharedReq accesses (Ratio)
system.l2.ReadSharedReq.missRate::total             1                       # miss rate for ReadSharedReq accesses (Ratio)
system.l2.WritebackClean.hits::writebacks            5                       # number of WritebackClean hits (Count)
system.l2.WritebackClean.hits::total                5                       # number of WritebackClean hits (Count)
system.l2.WritebackClean.accesses::writebacks            5                       # number of WritebackClean accesses(hits+misses) (Count)
system.l2.WritebackClean.accesses::total            5                       # number of WritebackClean accesses(hits+misses) (Count)
system.l2.power_state.pwrStateResidencyTicks::UNDEFINED     14151250                       # Cumulative time (in ticks) in various power states (Tick)
system.l2.tags.tagsInUse                   368.988880                       # Average ticks per tags in use ((Tick/Count))
system.l2.tags.totalRefs                          516                       # Total number of references to valid blocks. (Count)
system.l2.tags.sampledRefs                        510                       # Sample count of references to valid blocks. (Count)
system.l2.tags.avgRefs                       1.011765                       # Average number of references to valid blocks. ((Count/Count))
system.l2.tags.warmupTick                           0                       # The tick when the warmup percentage was hit. (Tick)
system.l2.tags.occupancies::cpu0.inst      192.485210                       # Average occupied blocks per tick, per requestor ((Count/Tick))
system.l2.tags.occupancies::cpu0.data      176.503671                       # Average occupied blocks per tick, per requestor ((Count/Tick))
system.l2.tags.avgOccs::cpu0.inst            0.023497                       # Average percentage of cache occupancy ((Ratio/Tick))
system.l2.tags.avgOccs::cpu0.data            0.021546                       # Average percentage of cache occupancy ((Ratio/Tick))
system.l2.tags.avgOccs::total                0.045043                       # Average percentage of cache occupancy ((Ratio/Tick))
system.l2.tags.occupanciesTaskId::1024            510                       # Occupied blocks per task id (Count)
system.l2.tags.ageTaskId_1024::0                  202                       # Occupied blocks per task id, per block age (Count)
system.l2.tags.ageTaskId_1024::1                  308                       # Occupied blocks per task id, per block age (Count)
system.l2.tags.ratioOccsTaskId::1024         0.062256                       # Ratio of occupied blocks and all blocks, per task id (Ratio)
system.l2.tags.tagAccesses                       4718                       # Number of tag accesses (Count)
system.l2.tags.dataAccesses                      4718                       # Number of data accesses (Count)
system.l2.tags.power_state.pwrStateResidencyTicks::UNDEFINED     14151250                       # Cumulative time (in ticks) in various power states (Tick)
system.mem_ctrls.bytesRead::cpu0.inst           16960                       # Number of bytes read from this memory (Byte)
system.mem_ctrls.bytesRead::cpu0.data           15680                       # Number of bytes read from this memory (Byte)
system.mem_ctrls.bytesRead::total               32640                       # Number of bytes read from this memory (Byte)
system.mem_ctrls.bytesInstRead::cpu0.inst        16960                       # Number of instructions bytes read from this memory (Byte)
system.mem_ctrls.bytesInstRead::total           16960                       # Number of instructions bytes read from this memory (Byte)
system.mem_ctrls.numReads::cpu0.inst              265                       # Number of read requests responded to by this memory (Count)
system.mem_ctrls.numReads::cpu0.data              245                       # Number of read requests responded to by this memory (Count)
system.mem_ctrls.numReads::total                  510                       # Number of read requests responded to by this memory (Count)
system.mem_ctrls.bwRead::cpu0.inst         1198480700                       # Total read bandwidth from this memory ((Byte/Second))
system.mem_ctrls.bwRead::cpu0.data         1108029326                       # Total read bandwidth from this memory ((Byte/Second))
system.mem_ctrls.bwRead::total             2306510026                       # Total read bandwidth from this memory ((Byte/Second))
system.mem_ctrls.bwInstRead::cpu0.inst     1198480700                       # Instruction read bandwidth from this memory ((Byte/Second))
system.mem_ctrls.bwInstRead::total         1198480700                       # Instruction read bandwidth from this memory ((Byte/Second))
system.mem_ctrls.bwTotal::cpu0.inst        1198480700                       # Total bandwidth to/from this memory ((Byte/Second))
system.mem_ctrls.bwTotal::cpu0.data        1108029326                       # Total bandwidth to/from this memory ((Byte/Second))
system.mem_ctrls.bwTotal::total            2306510026                       # Total bandwidth to/from this memory ((Byte/Second))
system.mem_ctrls.power_state.pwrStateResidencyTicks::UNDEFINED     14151250                       # Cumulative time (in ticks) in various power states (Tick)
system.membus.transDist::ReadResp                 413                       # Transaction distribution (Count)
system.membus.transDist::ReadExReq                 97                       # Transaction distribution (Count)
system.membus.transDist::ReadExResp                97                       # Transaction distribution (Count)
system.membus.transDist::ReadSharedReq            413                       # Transaction distribution (Count)
system.membus.transDist::InvalidateReq             10                       # Transaction distribution (Count)
system.membus.transDist::InvalidateResp            10                       # Transaction distribution (Count)
system.membus.pktCount_system.l2.mem_side_port::system.mem_ctrls.port         1040                       # Packet count per connected requestor and responder (Count)
system.membus.pktCount::total                    1040                       # Packet count per connected requestor and responder (Count)
system.membus.pktSize_system.l2.mem_side_port::system.mem_ctrls.port        32640                       # Cumulative packet size per connected requestor and responder (Byte)
system.membus.pktSize::total                    32640                       # Cumulative packet size per connected requestor and responder (Byte)
system.membus.snoops                                0                       # Total snoops (Count)
system.membus.snoopTraffic                          0                       # Total snoop traffic (Byte)
system.membus.snoopFanout::samples                520                       # Request fanout histogram (Count)
system.membus.snoopFanout::mean                     0                       # Request fanout histogram (Count)
system.membus.snoopFanout::stdev                    0                       # Request fanout histogram (Count)
system.membus.snoopFanout::underflows               0      0.00%      0.00% # Request fanout histogram (Count)
system.membus.snoopFanout::0                      520    100.00%    100.00% # Request fanout histogram (Count)
system.membus.snoopFanout::1                        0      0.00%    100.00% # Request fanout histogram (Count)
system.membus.snoopFanout::overflows                0      0.00%    100.00% # Request fanout histogram (Count)
system.membus.snoopFanout::min_value                0                       # Request fanout histogram (Count)
system.membus.snoopFanout::max_value                0                       # Request fanout histogram (Count)
system.membus.snoopFanout::total                  520                       # Request fanout histogram (Count)
system.membus.power_state.pwrStateResidencyTicks::UNDEFINED     14151250                       # Cumulative time (in ticks) in various power states (Tick)
system.membus.snoop_filter.totRequests            520                       # Total number of requests made to the snoop filter. (Count)
system.membus.snoop_filter.hitSingleRequests            0                       # Number of requests hitting in the snoop filter with a single holder of the requested data. (Count)
system.membus.snoop_filter.hitMultiRequests            0                       # Number of requests hitting in the snoop filter with multiple (>1) holders of the requested data. (Count)
system.membus.snoop_filter.totSnoops                0                       # Total number of snoops made to the snoop filter. (Count)
system.membus.snoop_filter.hitSingleSnoops            0                       # Number of snoops hitting in the snoop filter with a single holder of the requested data. (Count)
system.membus.snoop_filter.hitMultiSnoops            0                       # Number of snoops hitting in the snoop filter with multiple (>1) holders of the requested data. (Count)
system.tol2bus.transDist::ReadResp                414                       # Transaction distribution (Count)
system.tol2bus.transDist::WritebackClean            5                       # Transaction distribution (Count)
system.tol2bus.transDist::ReadExReq                97                       # Transaction distribution (Count)
system.tol2bus.transDist::ReadExResp               97                       # Transaction distribution (Count)
system.tol2bus.transDist::ReadCleanReq            266                       # Transaction distribution (Count)
system.tol2bus.transDist::ReadSharedReq           148                       # Transaction distribution (Count)
system.tol2bus.transDist::InvalidateReq            10                       # Transaction distribution (Count)
system.tol2bus.transDist::InvalidateResp           10                       # Transaction distribution (Count)
system.tol2bus.pktCount_system.cpu0.icache.mem_side_port::system.l2.cpu_side_port          537                       # Packet count per connected requestor and responder (Count)
system.tol2bus.pktCount_system.cpu0.dcache.mem_side_port::system.l2.cpu_side_port          510                       # Packet count per connected requestor and responder (Count)
system.tol2bus.pktCount::total                   1047                       # Packet count per connected requestor and responder (Count)
system.tol2bus.pktSize_system.cpu0.icache.mem_side_port::system.l2.cpu_side_port        17344                       # Cumulative packet size per connected requestor and responder (Byte)
system.tol2bus.pktSize_system.cpu0.dcache.mem_side_port::system.l2.cpu_side_port        15680                       # Cumulative packet size per connected requestor and responder (Byte)
system.tol2bus.pktSize::total                   33024                       # Cumulative packet size per connected requestor and responder (Byte)
system.tol2bus.snoops                               0                       # Total snoops (Count)
system.tol2bus.snoopTraffic                         0                       # Total snoop traffic (Byte)
system.tol2bus.snoopFanout::samples               521                       # Request fanout histogram (Count)
system.tol2bus.snoopFanout::mean             0.001919                       # Request fanout histogram (Count)
system.tol2bus.snoopFanout::stdev            0.043811                       # Request fanout histogram (Count)
system.tol2bus.snoopFanout::underflows              0      0.00%      0.00% # Request fanout histogram (Count)
system.tol2bus.snoopFanout::0                     520     99.81%     99.81% # Request fanout histogram (Count)
system.tol2bus.snoopFanout::1                       1      0.19%    100.00% # Request fanout histogram (Count)
system.tol2bus.snoopFanout::2                       0      0.00%    100.00% # Request fanout histogram (Count)
system.tol2bus.snoopFanout::3                       0      0.00%    100.00% # Request fanout histogram (Count)
system.tol2bus.snoopFanout::4                       0      0.00%    100.00% # Request fanout histogram (Count)
system.tol2bus.snoopFanout::overflows               0      0.00%    100.00% # Request fanout histogram (Count)
system.tol2bus.snoopFanout::min_value               0                       # Request fanout histogram (Count)
system.tol2bus.snoopFanout::max_value               1                       # Request fanout histogram (Count)
system.tol2bus.snoopFanout::total                 521                       # Request fanout histogram (Count)
system.tol2bus.power_state.pwrStateResidencyTicks::UNDEFINED     14151250                       # Cumulative time (in ticks) in various power states (Tick)
system.tol2bus.snoop_filter.totRequests           526                       # Total number of requests made to the snoop filter. (Count)
system.tol2bus.snoop_filter.hitSingleRequests            6                       # Number of requests hitting in the snoop filter with a single holder of the requested data. (Count)
system.tol2bus.snoop_filter.hitMultiRequests            0                       # Number of requests hitting in the snoop filter with multiple (>1) holders of the requested data. (Count)
system.tol2bus.snoop_filter.totSnoops               0                       # Total number of snoops made to the snoop filter. (Count)
system.tol2bus.snoop_filter.hitSingleSnoops            0                       # Number of snoops hitting in the snoop filter with a single holder of the requested data. (Count)
system.tol2bus.snoop_filter.hitMultiSnoops            0                       # Number of snoops hitting in the snoop filter with multiple (>1) holders of the requested data. (Count)
system.voltage_domain.voltage                       1                       # Voltage in Volts (Volt)
system.workload.inst.arm                            0                       # number of arm instructions executed (Count)
system.workload.inst.quiesce                        0                       # number of quiesce instructions executed (Count)

---------- End Simulation Statistics   ----------